<?xml version="1.0" encoding="UTF-8"?>

<!-- generated on 04/15/20 02:10:33 by Eclipse SUMO netedit Version 1.3.1
<configuration xmlns:xsi="http://www.w3.org/2001/XMLSchema-instance" xsi:noNamespaceSchemaLocation="http://sumo.dlr.de/xsd/netconvertConfiguration.xsd">

    <input>
        <sumo-net-file value="C:\Users\usman\OneDrive\Desktop\FYP\Deep-QLearning-Agent-for-Traffic-Signal-Control-master\TLCS\intersection\tlcs.net.xml"/>
    </input>

    <output>
        <output-file value="C:\Users\usman\OneDrive\Desktop\FYP\Deep-QLearning-Agent-for-Traffic-Signal-Control-master\TLCS\intersection\tlcs.net.xml"/>
    </output>

    <processing>
        <geometry.max-grade.fix value="false"/>
        <offset.disable-normalization value="true"/>
        <opposites.guess.fix-lengths value="true"/>
        <lefthand value="false"/>
    </processing>

    <junctions>
        <no-turnarounds value="true"/>
        <junctions.corner-detail value="5"/>
        <junctions.limit-turn-speed value="5.5"/>
        <rectangular-lane-cut value="false"/>
    </junctions>

    <pedestrian>
        <walkingareas value="false"/>
    </pedestrian>

</configuration>
-->

<net version="1.3" junctionCornerDetail="5" limitTurnSpeed="5.50" xmlns:xsi="http://www.w3.org/2001/XMLSchema-instance" xsi:noNamespaceSchemaLocation="http://sumo.dlr.de/xsd/net_file.xsd">

    <location netOffset="0.00,0.00" convBoundary="-800.00,-800.00,800.00,800.00" origBoundary="-10000000000.00,-10000000000.00,10000000000.00,10000000000.00" projParameter="!"/>

    <edge id=":DE_0" function="internal">
        <lane id=":DE_0_0" index="0" speed="13.89" length="21.30" shape="750.25,11.20 747.44,11.97 743.67,14.29 738.93,18.15 733.24,23.55"/>
    </edge>
    <edge id=":DE_1" function="internal">
        <lane id=":DE_1_0" index="0" speed="13.89" length="26.10" shape="750.25,11.20 724.15,11.20"/>
        <lane id=":DE_1_1" index="1" speed="13.89" length="26.10" shape="750.25,8.00 724.15,8.00"/>
        <lane id=":DE_1_2" index="2" speed="13.89" length="26.10" shape="750.25,4.80 724.15,4.80"/>
        <lane id=":DE_1_3" index="3" speed="13.89" length="26.10" shape="750.25,1.60 724.15,1.60"/>
    </edge>
    <edge id=":DE_5" function="internal">
        <lane id=":DE_5_0" index="0" speed="13.89" length="2.48" shape="750.25,1.60 748.36,-0.00"/>
    </edge>
    <edge id=":DE_18" function="internal">
        <lane id=":DE_18_0" index="0" speed="13.89" length="27.35" shape="748.36,-0.00 746.56,-1.52 739.37,-8.45 732.24,-15.50 728.71,-19.02"/>
    </edge>
    <edge id=":DE_6" function="internal">
        <lane id=":DE_6_0" index="0" speed="13.89" length="21.30" shape="733.24,-23.55 738.93,-18.15 743.67,-14.29 747.44,-11.97 750.25,-11.20"/>
    </edge>
    <edge id=":DE_7" function="internal">
        <lane id=":DE_7_0" index="0" speed="13.89" length="48.55" shape="730.98,-21.29 738.96,-10.64 741.62,0.00 738.96,10.64 730.98,21.29"/>
    </edge>
    <edge id=":DE_8" function="internal">
        <lane id=":DE_8_0" index="0" speed="9.34" length="31.53" shape="730.98,-21.29 735.73,-13.75 736.06,-6.32 732.13,-0.66 724.15,1.60"/>
    </edge>
    <edge id=":DE_9" function="internal">
        <lane id=":DE_9_0" index="0" speed="5.47" length="9.74" shape="724.15,-11.20 727.24,-11.55 728.66,-12.59 728.39,-14.33 726.45,-16.76"/>
    </edge>
    <edge id=":DE_10" function="internal">
        <lane id=":DE_10_0" index="0" speed="13.89" length="26.10" shape="724.15,-11.20 750.25,-11.20"/>
        <lane id=":DE_10_1" index="1" speed="13.89" length="26.10" shape="724.15,-8.00 750.25,-8.00"/>
        <lane id=":DE_10_2" index="2" speed="13.89" length="26.10" shape="724.15,-4.80 750.25,-4.80"/>
        <lane id=":DE_10_3" index="3" speed="13.89" length="26.10" shape="724.15,-1.60 750.25,-1.60"/>
    </edge>
    <edge id=":DE_14" function="internal">
        <lane id=":DE_14_0" index="0" speed="9.34" length="5.88" shape="724.15,-1.60 729.81,-0.00"/>
    </edge>
    <edge id=":DE_19" function="internal">
        <lane id=":DE_19_0" index="0" speed="9.34" length="25.65" shape="729.81,-0.00 732.13,0.66 736.06,6.32 735.73,13.75 730.98,21.29"/>
    </edge>
    <edge id=":DE_15" function="internal">
        <lane id=":DE_15_0" index="0" speed="5.47" length="9.74" shape="726.45,16.76 728.39,14.33 728.66,12.59 727.24,11.55 724.15,11.20"/>
    </edge>
    <edge id=":DE_16" function="internal">
        <lane id=":DE_16_0" index="0" speed="13.66" length="43.39" shape="728.71,19.02 735.85,9.51 738.23,-0.00 735.85,-9.51 728.71,-19.02"/>
    </edge>
    <edge id=":DE_17" function="internal">
        <lane id=":DE_17_0" index="0" speed="13.89" length="29.83" shape="728.71,19.02 732.24,15.50 739.37,8.45 746.56,1.52 750.25,-1.60"/>
    </edge>
    <edge id=":DN_0" function="internal">
        <lane id=":DN_0_0" index="0" speed="13.89" length="21.30" shape="-11.20,750.25 -11.97,747.44 -14.29,743.67 -18.15,738.93 -23.55,733.24"/>
    </edge>
    <edge id=":DN_1" function="internal">
        <lane id=":DN_1_0" index="0" speed="13.89" length="26.10" shape="-11.20,750.25 -11.20,724.15"/>
        <lane id=":DN_1_1" index="1" speed="13.89" length="26.10" shape="-8.00,750.25 -8.00,724.15"/>
        <lane id=":DN_1_2" index="2" speed="13.89" length="26.10" shape="-4.80,750.25 -4.80,724.15"/>
        <lane id=":DN_1_3" index="3" speed="13.89" length="26.10" shape="-1.60,750.25 -1.60,724.15"/>
    </edge>
    <edge id=":DN_5" function="internal">
        <lane id=":DN_5_0" index="0" speed="13.89" length="2.48" shape="-1.60,750.25 0.00,748.36"/>
    </edge>
    <edge id=":DN_18" function="internal">
        <lane id=":DN_18_0" index="0" speed="13.89" length="27.35" shape="0.00,748.36 1.52,746.56 8.45,739.37 15.50,732.24 19.02,728.71"/>
    </edge>
    <edge id=":DN_6" function="internal">
        <lane id=":DN_6_0" index="0" speed="13.89" length="21.30" shape="23.55,733.24 18.15,738.93 14.29,743.67 11.97,747.44 11.20,750.25"/>
    </edge>
    <edge id=":DN_7" function="internal">
        <lane id=":DN_7_0" index="0" speed="13.89" length="48.55" shape="21.29,730.98 10.64,738.96 -0.00,741.62 -10.64,738.96 -21.29,730.98"/>
    </edge>
    <edge id=":DN_8" function="internal">
        <lane id=":DN_8_0" index="0" speed="9.34" length="31.53" shape="21.29,730.98 13.75,735.73 6.32,736.06 0.66,732.13 -1.60,724.15"/>
    </edge>
    <edge id=":DN_9" function="internal">
        <lane id=":DN_9_0" index="0" speed="5.47" length="9.74" shape="11.20,724.15 11.55,727.24 12.59,728.66 14.33,728.39 16.76,726.45"/>
    </edge>
    <edge id=":DN_10" function="internal">
        <lane id=":DN_10_0" index="0" speed="13.89" length="26.10" shape="11.20,724.15 11.20,750.25"/>
        <lane id=":DN_10_1" index="1" speed="13.89" length="26.10" shape="8.00,724.15 8.00,750.25"/>
        <lane id=":DN_10_2" index="2" speed="13.89" length="26.10" shape="4.80,724.15 4.80,750.25"/>
        <lane id=":DN_10_3" index="3" speed="13.89" length="26.10" shape="1.60,724.15 1.60,750.25"/>
    </edge>
    <edge id=":DN_14" function="internal">
        <lane id=":DN_14_0" index="0" speed="9.34" length="5.88" shape="1.60,724.15 0.00,729.81"/>
    </edge>
    <edge id=":DN_19" function="internal">
        <lane id=":DN_19_0" index="0" speed="9.34" length="25.65" shape="0.00,729.81 -0.66,732.13 -6.32,736.06 -13.75,735.73 -21.29,730.98"/>
    </edge>
    <edge id=":DN_15" function="internal">
        <lane id=":DN_15_0" index="0" speed="5.47" length="9.74" shape="-16.76,726.45 -14.33,728.39 -12.59,728.66 -11.55,727.24 -11.20,724.15"/>
    </edge>
    <edge id=":DN_16" function="internal">
        <lane id=":DN_16_0" index="0" speed="13.66" length="43.39" shape="-19.02,728.71 -9.51,735.85 0.00,738.23 9.51,735.85 19.02,728.71"/>
    </edge>
    <edge id=":DN_17" function="internal">
        <lane id=":DN_17_0" index="0" speed="13.89" length="29.83" shape="-19.02,728.71 -15.50,732.24 -8.45,739.37 -1.52,746.56 1.60,750.25"/>
    </edge>
    <edge id=":DS_0" function="internal">
        <lane id=":DS_0_0" index="0" speed="5.47" length="9.74" shape="-11.20,-724.15 -11.55,-727.24 -12.59,-728.66 -14.33,-728.39 -16.76,-726.45"/>
    </edge>
    <edge id=":DS_1" function="internal">
        <lane id=":DS_1_0" index="0" speed="13.89" length="26.10" shape="-11.20,-724.15 -11.20,-750.25"/>
        <lane id=":DS_1_1" index="1" speed="13.89" length="26.10" shape="-8.00,-724.15 -8.00,-750.25"/>
        <lane id=":DS_1_2" index="2" speed="13.89" length="26.10" shape="-4.80,-724.15 -4.80,-750.25"/>
        <lane id=":DS_1_3" index="3" speed="13.89" length="26.10" shape="-1.60,-724.15 -1.60,-750.25"/>
    </edge>
    <edge id=":DS_5" function="internal">
        <lane id=":DS_5_0" index="0" speed="9.34" length="5.88" shape="-1.60,-724.15 -0.00,-729.81"/>
    </edge>
    <edge id=":DS_18" function="internal">
        <lane id=":DS_18_0" index="0" speed="9.34" length="25.65" shape="-0.00,-729.81 0.66,-732.13 6.32,-736.06 13.75,-735.73 21.29,-730.98"/>
    </edge>
    <edge id=":DS_6" function="internal">
        <lane id=":DS_6_0" index="0" speed="5.47" length="9.74" shape="16.76,-726.45 14.33,-728.39 12.59,-728.66 11.55,-727.24 11.20,-724.15"/>
    </edge>
    <edge id=":DS_7" function="internal">
        <lane id=":DS_7_0" index="0" speed="13.66" length="43.39" shape="19.02,-728.71 9.51,-735.85 -0.00,-738.23 -9.51,-735.85 -19.02,-728.71"/>
    </edge>
    <edge id=":DS_8" function="internal">
        <lane id=":DS_8_0" index="0" speed="13.89" length="29.83" shape="19.02,-728.71 15.50,-732.24 8.45,-739.37 1.52,-746.56 -1.60,-750.25"/>
    </edge>
    <edge id=":DS_9" function="internal">
        <lane id=":DS_9_0" index="0" speed="13.89" length="21.30" shape="11.20,-750.25 11.97,-747.44 14.29,-743.67 18.15,-738.93 23.55,-733.24"/>
    </edge>
    <edge id=":DS_10" function="internal">
        <lane id=":DS_10_0" index="0" speed="13.89" length="26.10" shape="11.20,-750.25 11.20,-724.15"/>
        <lane id=":DS_10_1" index="1" speed="13.89" length="26.10" shape="8.00,-750.25 8.00,-724.15"/>
        <lane id=":DS_10_2" index="2" speed="13.89" length="26.10" shape="4.80,-750.25 4.80,-724.15"/>
        <lane id=":DS_10_3" index="3" speed="13.89" length="26.10" shape="1.60,-750.25 1.60,-724.15"/>
    </edge>
    <edge id=":DS_14" function="internal">
        <lane id=":DS_14_0" index="0" speed="13.89" length="2.48" shape="1.60,-750.25 -0.00,-748.36"/>
    </edge>
    <edge id=":DS_19" function="internal">
        <lane id=":DS_19_0" index="0" speed="13.89" length="27.35" shape="-0.00,-748.36 -1.52,-746.56 -8.45,-739.37 -15.50,-732.24 -19.02,-728.71"/>
    </edge>
    <edge id=":DS_15" function="internal">
        <lane id=":DS_15_0" index="0" speed="13.89" length="21.30" shape="-23.55,-733.24 -18.15,-738.93 -14.29,-743.67 -11.97,-747.44 -11.20,-750.25"/>
    </edge>
    <edge id=":DS_16" function="internal">
        <lane id=":DS_16_0" index="0" speed="13.89" length="48.55" shape="-21.29,-730.98 -10.64,-738.96 0.00,-741.62 10.64,-738.96 21.29,-730.98"/>
    </edge>
    <edge id=":DS_17" function="internal">
        <lane id=":DS_17_0" index="0" speed="9.34" length="31.53" shape="-21.29,-730.98 -13.75,-735.73 -6.32,-736.06 -0.66,-732.13 1.60,-724.15"/>
    </edge>
    <edge id=":DW_0" function="internal">
        <lane id=":DW_0_0" index="0" speed="13.89" length="21.30" shape="-733.24,23.55 -738.93,18.15 -743.67,14.29 -747.44,11.97 -750.25,11.20"/>
    </edge>
    <edge id=":DW_1" function="internal">
        <lane id=":DW_1_0" index="0" speed="13.89" length="48.55" shape="-730.98,21.29 -738.96,10.64 -741.62,-0.00 -738.96,-10.64 -730.98,-21.29"/>
    </edge>
    <edge id=":DW_2" function="internal">
        <lane id=":DW_2_0" index="0" speed="9.34" length="31.53" shape="-730.98,21.29 -735.73,13.75 -736.06,6.32 -732.13,0.66 -724.15,-1.60"/>
    </edge>
    <edge id=":DW_3" function="internal">
        <lane id=":DW_3_0" index="0" speed="5.47" length="9.74" shape="-724.15,11.20 -727.24,11.55 -728.66,12.59 -728.39,14.33 -726.45,16.76"/>
    </edge>
    <edge id=":DW_4" function="internal">
        <lane id=":DW_4_0" index="0" speed="13.89" length="26.10" shape="-724.15,11.20 -750.25,11.20"/>
        <lane id=":DW_4_1" index="1" speed="13.89" length="26.10" shape="-724.15,8.00 -750.25,8.00"/>
        <lane id=":DW_4_2" index="2" speed="13.89" length="26.10" shape="-724.15,4.80 -750.25,4.80"/>
        <lane id=":DW_4_3" index="3" speed="13.89" length="26.10" shape="-724.15,1.60 -750.25,1.60"/>
    </edge>
    <edge id=":DW_8" function="internal">
        <lane id=":DW_8_0" index="0" speed="9.34" length="5.88" shape="-724.15,1.60 -729.81,0.00"/>
    </edge>
    <edge id=":DW_18" function="internal">
        <lane id=":DW_18_0" index="0" speed="9.34" length="25.65" shape="-729.81,0.00 -732.13,-0.66 -736.06,-6.32 -735.73,-13.75 -730.98,-21.29"/>
    </edge>
    <edge id=":DW_9" function="internal">
        <lane id=":DW_9_0" index="0" speed="5.47" length="9.74" shape="-726.45,-16.76 -728.39,-14.33 -728.66,-12.59 -727.24,-11.55 -724.15,-11.20"/>
    </edge>
    <edge id=":DW_10" function="internal">
        <lane id=":DW_10_0" index="0" speed="13.66" length="43.39" shape="-728.71,-19.02 -735.85,-9.51 -738.23,0.00 -735.85,9.51 -728.71,19.02"/>
    </edge>
    <edge id=":DW_11" function="internal">
        <lane id=":DW_11_0" index="0" speed="13.89" length="29.83" shape="-728.71,-19.02 -732.24,-15.50 -739.37,-8.45 -746.56,-1.52 -750.25,1.60"/>
    </edge>
    <edge id=":DW_12" function="internal">
        <lane id=":DW_12_0" index="0" speed="13.89" length="21.30" shape="-750.25,-11.20 -747.44,-11.97 -743.67,-14.29 -738.93,-18.15 -733.24,-23.55"/>
    </edge>
    <edge id=":DW_13" function="internal">
        <lane id=":DW_13_0" index="0" speed="13.89" length="26.10" shape="-750.25,-11.20 -724.15,-11.20"/>
        <lane id=":DW_13_1" index="1" speed="13.89" length="26.10" shape="-750.25,-8.00 -724.15,-8.00"/>
        <lane id=":DW_13_2" index="2" speed="13.89" length="26.10" shape="-750.25,-4.80 -724.15,-4.80"/>
        <lane id=":DW_13_3" index="3" speed="13.89" length="26.10" shape="-750.25,-1.60 -724.15,-1.60"/>
    </edge>
    <edge id=":DW_17" function="internal">
        <lane id=":DW_17_0" index="0" speed="13.89" length="2.48" shape="-750.25,-1.60 -748.36,0.00"/>
    </edge>
    <edge id=":DW_19" function="internal">
        <lane id=":DW_19_0" index="0" speed="13.89" length="27.35" shape="-748.36,0.00 -746.56,1.52 -739.37,8.45 -732.24,15.50 -728.71,19.02"/>
    </edge>
    <edge id=":TL_0" function="internal">
        <lane id=":TL_0_0" index="0" speed="6.51" length="9.03" shape="-11.20,16.80 -11.55,14.35 -12.60,12.60 -14.35,11.55 -16.80,11.20"/>
    </edge>
    <edge id=":TL_1" function="internal">
        <lane id=":TL_1_0" index="0" speed="13.89" length="33.60" shape="-11.20,16.80 -11.20,-16.80"/>
        <lane id=":TL_1_1" index="1" speed="13.89" length="33.60" shape="-8.00,16.80 -8.00,-16.80"/>
        <lane id=":TL_1_2" index="2" speed="13.89" length="33.60" shape="-4.80,16.80 -4.80,-16.80"/>
    </edge>
    <edge id=":TL_4" function="internal">
        <lane id=":TL_4_0" index="0" speed="11.36" length="29.67" shape="-1.60,16.80 -0.45,8.75 3.00,3.00 8.75,-0.45 16.80,-1.60"/>
    </edge>
    <edge id=":TL_5" function="internal">
        <lane id=":TL_5_0" index="0" speed="6.51" length="9.03" shape="16.80,11.20 14.35,11.55 12.60,12.60 11.55,14.35 11.20,16.80"/>
    </edge>
    <edge id=":TL_6" function="internal">
        <lane id=":TL_6_0" index="0" speed="13.89" length="33.60" shape="16.80,11.20 -16.80,11.20"/>
        <lane id=":TL_6_1" index="1" speed="13.89" length="33.60" shape="16.80,8.00 -16.80,8.00"/>
        <lane id=":TL_6_2" index="2" speed="13.89" length="33.60" shape="16.80,4.80 -16.80,4.80"/>
    </edge>
    <edge id=":TL_9" function="internal">
        <lane id=":TL_9_0" index="0" speed="11.36" length="29.67" shape="16.80,1.60 8.75,0.45 3.00,-3.00 -0.45,-8.75 -1.60,-16.80"/>
    </edge>
    <edge id=":TL_10" function="internal">
        <lane id=":TL_10_0" index="0" speed="6.51" length="9.03" shape="11.20,-16.80 11.55,-14.35 12.60,-12.60 14.35,-11.55 16.80,-11.20"/>
    </edge>
    <edge id=":TL_11" function="internal">
        <lane id=":TL_11_0" index="0" speed="13.89" length="33.60" shape="11.20,-16.80 11.20,16.80"/>
        <lane id=":TL_11_1" index="1" speed="13.89" length="33.60" shape="8.00,-16.80 8.00,16.80"/>
        <lane id=":TL_11_2" index="2" speed="13.89" length="33.60" shape="4.80,-16.80 4.80,16.80"/>
    </edge>
    <edge id=":TL_14" function="internal">
        <lane id=":TL_14_0" index="0" speed="11.36" length="29.67" shape="1.60,-16.80 0.45,-8.75 -3.00,-3.00 -8.75,0.45 -16.80,1.60"/>
    </edge>
    <edge id=":TL_15" function="internal">
        <lane id=":TL_15_0" index="0" speed="6.51" length="9.03" shape="-16.80,-11.20 -14.35,-11.55 -12.60,-12.60 -11.55,-14.35 -11.20,-16.80"/>
    </edge>
    <edge id=":TL_16" function="internal">
        <lane id=":TL_16_0" index="0" speed="13.89" length="33.60" shape="-16.80,-11.20 16.80,-11.20"/>
        <lane id=":TL_16_1" index="1" speed="13.89" length="33.60" shape="-16.80,-8.00 16.80,-8.00"/>
        <lane id=":TL_16_2" index="2" speed="13.89" length="33.60" shape="-16.80,-4.80 16.80,-4.80"/>
    </edge>
    <edge id=":TL_19" function="internal">
        <lane id=":TL_19_0" index="0" speed="11.36" length="29.67" shape="-16.80,-1.60 -8.75,-0.45 -3.00,3.00 0.45,8.75 1.60,16.80"/>
    </edge>

    <edge id="E2N" from="DE" to="DN" priority="-1">
        <lane id="E2N_0" index="0" speed="13.89" length="1003.66" shape="733.24,23.55 23.55,733.24"/>
        <lane id="E2N_1" index="1" speed="13.89" length="1003.66" shape="730.98,21.29 21.29,730.98"/>
    </edge>
    <edge id="E2S" from="DE" to="DS" priority="-1">
        <lane id="E2S_0" index="0" speed="13.89" length="1003.66" shape="726.45,-16.76 16.76,-726.45"/>
        <lane id="E2S_1" index="1" speed="13.89" length="1003.66" shape="728.71,-19.02 19.02,-728.71"/>
    </edge>
    <edge id="E2TL" from="DE" to="TL" priority="-1" length="750.00">
        <lane id="E2TL_0" index="0" speed="13.89" length="750.00" shape="724.15,11.20 16.80,11.20"/>
        <lane id="E2TL_1" index="1" speed="13.89" length="750.00" shape="724.15,8.00 16.80,8.00"/>
        <lane id="E2TL_2" index="2" speed="13.89" length="750.00" shape="724.15,4.80 16.80,4.80"/>
        <lane id="E2TL_3" index="3" speed="13.89" length="750.00" shape="724.15,1.60 16.80,1.60"/>
    </edge>
    <edge id="EIN" from="DE" to="E" priority="-1">
        <lane id="EIN_0" index="0" speed="13.89" length="49.75" shape="750.25,-11.20 800.00,-11.20"/>
        <lane id="EIN_1" index="1" speed="13.89" length="49.75" shape="750.25,-8.00 800.00,-8.00"/>
        <lane id="EIN_2" index="2" speed="13.89" length="49.75" shape="750.25,-4.80 800.00,-4.80"/>
        <lane id="EIN_3" index="3" speed="13.89" length="49.75" shape="750.25,-1.60 800.00,-1.60"/>
    </edge>
    <edge id="EOUT" from="E" to="DE" priority="-1">
        <lane id="EOUT_0" index="0" speed="13.89" length="49.75" shape="800.00,11.20 750.25,11.20"/>
        <lane id="EOUT_1" index="1" speed="13.89" length="49.75" shape="800.00,8.00 750.25,8.00"/>
        <lane id="EOUT_2" index="2" speed="13.89" length="49.75" shape="800.00,4.80 750.25,4.80"/>
        <lane id="EOUT_3" index="3" speed="13.89" length="49.75" shape="800.00,1.60 750.25,1.60"/>
    </edge>
    <edge id="N2E" from="DN" to="DE" priority="-1">
        <lane id="N2E_0" index="0" speed="13.89" length="1003.66" shape="16.76,726.45 726.45,16.76"/>
        <lane id="N2E_1" index="1" speed="13.89" length="1003.66" shape="19.02,728.71 728.71,19.02"/>
    </edge>
    <edge id="N2TL" from="DN" to="TL" priority="-1" length="750.00">
        <lane id="N2TL_0" index="0" speed="13.89" length="750.00" shape="-11.20,724.15 -11.20,16.80"/>
        <lane id="N2TL_1" index="1" speed="13.89" length="750.00" shape="-8.00,724.15 -8.00,16.80"/>
        <lane id="N2TL_2" index="2" speed="13.89" length="750.00" shape="-4.80,724.15 -4.80,16.80"/>
        <lane id="N2TL_3" index="3" speed="13.89" length="750.00" shape="-1.60,724.15 -1.60,16.80"/>
    </edge>
    <edge id="N2W" from="DN" to="DW" priority="-1">
        <lane id="N2W_0" index="0" speed="13.89" length="1003.66" shape="-23.55,733.24 -733.24,23.55"/>
        <lane id="N2W_1" index="1" speed="13.89" length="1003.66" shape="-21.29,730.98 -730.98,21.29"/>
    </edge>
    <edge id="NIN" from="DN" to="N" priority="-1">
        <lane id="NIN_0" index="0" speed="13.89" length="49.75" shape="11.20,750.25 11.20,800.00"/>
        <lane id="NIN_1" index="1" speed="13.89" length="49.75" shape="8.00,750.25 8.00,800.00"/>
        <lane id="NIN_2" index="2" speed="13.89" length="49.75" shape="4.80,750.25 4.80,800.00"/>
        <lane id="NIN_3" index="3" speed="13.89" length="49.75" shape="1.60,750.25 1.60,800.00"/>
    </edge>
    <edge id="NOUT" from="N" to="DN" priority="-1">
        <lane id="NOUT_0" index="0" speed="13.89" length="49.75" shape="-11.20,800.00 -11.20,750.25"/>
        <lane id="NOUT_1" index="1" speed="13.89" length="49.75" shape="-8.00,800.00 -8.00,750.25"/>
        <lane id="NOUT_2" index="2" speed="13.89" length="49.75" shape="-4.80,800.00 -4.80,750.25"/>
        <lane id="NOUT_3" index="3" speed="13.89" length="49.75" shape="-1.60,800.00 -1.60,750.25"/>
    </edge>
    <edge id="S2E" from="DS" to="DE" priority="-1">
        <lane id="S2E_0" index="0" speed="13.89" length="1003.66" shape="23.55,-733.24 733.24,-23.55"/>
        <lane id="S2E_1" index="1" speed="13.89" length="1003.66" shape="21.29,-730.98 730.98,-21.29"/>
    </edge>
    <edge id="S2TL" from="DS" to="TL" priority="-1" length="750.00">
        <lane id="S2TL_0" index="0" speed="13.89" length="750.00" shape="11.20,-724.15 11.20,-16.80"/>
        <lane id="S2TL_1" index="1" speed="13.89" length="750.00" shape="8.00,-724.15 8.00,-16.80"/>
        <lane id="S2TL_2" index="2" speed="13.89" length="750.00" shape="4.80,-724.15 4.80,-16.80"/>
        <lane id="S2TL_3" index="3" speed="13.89" length="750.00" shape="1.60,-724.15 1.60,-16.80"/>
    </edge>
    <edge id="S2W" from="DS" to="DW" priority="-1">
        <lane id="S2W_0" index="0" speed="13.89" length="1003.66" shape="-16.76,-726.45 -726.45,-16.76"/>
        <lane id="S2W_1" index="1" speed="13.89" length="1003.66" shape="-19.02,-728.71 -728.71,-19.02"/>
    </edge>
    <edge id="SIN" from="DS" to="S" priority="-1">
        <lane id="SIN_0" index="0" speed="13.89" length="49.75" shape="-11.20,-750.25 -11.20,-800.00"/>
        <lane id="SIN_1" index="1" speed="13.89" length="49.75" shape="-8.00,-750.25 -8.00,-800.00"/>
        <lane id="SIN_2" index="2" speed="13.89" length="49.75" shape="-4.80,-750.25 -4.80,-800.00"/>
        <lane id="SIN_3" index="3" speed="13.89" length="49.75" shape="-1.60,-750.25 -1.60,-800.00"/>
    </edge>
    <edge id="SOUT" from="S" to="DS" priority="-1">
        <lane id="SOUT_0" index="0" speed="13.89" length="49.75" shape="11.20,-800.00 11.20,-750.25"/>
        <lane id="SOUT_1" index="1" speed="13.89" length="49.75" shape="8.00,-800.00 8.00,-750.25"/>
        <lane id="SOUT_2" index="2" speed="13.89" length="49.75" shape="4.80,-800.00 4.80,-750.25"/>
        <lane id="SOUT_3" index="3" speed="13.89" length="49.75" shape="1.60,-800.00 1.60,-750.25"/>
    </edge>
    <edge id="TL2E" from="TL" to="DE" priority="-1" length="750.00">
        <lane id="TL2E_0" index="0" speed="13.89" length="750.00" shape="16.80,-11.20 724.15,-11.20"/>
        <lane id="TL2E_1" index="1" speed="13.89" length="750.00" shape="16.80,-8.00 724.15,-8.00"/>
        <lane id="TL2E_2" index="2" speed="13.89" length="750.00" shape="16.80,-4.80 724.15,-4.80"/>
        <lane id="TL2E_3" index="3" speed="13.89" length="750.00" shape="16.80,-1.60 724.15,-1.60"/>
    </edge>
    <edge id="TL2N" from="TL" to="DN" priority="-1" length="750.00">
        <lane id="TL2N_0" index="0" speed="13.89" length="750.00" shape="11.20,16.80 11.20,724.15"/>
        <lane id="TL2N_1" index="1" speed="13.89" length="750.00" shape="8.00,16.80 8.00,724.15"/>
        <lane id="TL2N_2" index="2" speed="13.89" length="750.00" shape="4.80,16.80 4.80,724.15"/>
        <lane id="TL2N_3" index="3" speed="13.89" length="750.00" shape="1.60,16.80 1.60,724.15"/>
    </edge>
    <edge id="TL2S" from="TL" to="DS" priority="-1" length="750.00">
        <lane id="TL2S_0" index="0" speed="13.89" length="750.00" shape="-11.20,-16.80 -11.20,-724.15"/>
        <lane id="TL2S_1" index="1" speed="13.89" length="750.00" shape="-8.00,-16.80 -8.00,-724.15"/>
        <lane id="TL2S_2" index="2" speed="13.89" length="750.00" shape="-4.80,-16.80 -4.80,-724.15"/>
        <lane id="TL2S_3" index="3" speed="13.89" length="750.00" shape="-1.60,-16.80 -1.60,-724.15"/>
    </edge>
    <edge id="TL2W" from="TL" to="DW" priority="-1" length="750.00">
        <lane id="TL2W_0" index="0" speed="13.89" length="750.00" shape="-16.80,11.20 -724.15,11.20"/>
        <lane id="TL2W_1" index="1" speed="13.89" length="750.00" shape="-16.80,8.00 -724.15,8.00"/>
        <lane id="TL2W_2" index="2" speed="13.89" length="750.00" shape="-16.80,4.80 -724.15,4.80"/>
        <lane id="TL2W_3" index="3" speed="13.89" length="750.00" shape="-16.80,1.60 -724.15,1.60"/>
    </edge>
    <edge id="W2N" from="DW" to="DN" priority="-1">
        <lane id="W2N_0" index="0" speed="13.89" length="1003.66" shape="-726.45,16.76 -16.76,726.45"/>
        <lane id="W2N_1" index="1" speed="13.89" length="1003.66" shape="-728.71,19.02 -19.02,728.71"/>
    </edge>
    <edge id="W2S" from="DW" to="DS" priority="-1">
        <lane id="W2S_0" index="0" speed="13.89" length="1003.66" shape="-733.24,-23.55 -23.55,-733.24"/>
        <lane id="W2S_1" index="1" speed="13.89" length="1003.66" shape="-730.98,-21.29 -21.29,-730.98"/>
    </edge>
    <edge id="W2TL" from="DW" to="TL" priority="-1" length="750.00">
        <lane id="W2TL_0" index="0" speed="13.89" length="750.00" shape="-724.15,-11.20 -16.80,-11.20"/>
        <lane id="W2TL_1" index="1" speed="13.89" length="750.00" shape="-724.15,-8.00 -16.80,-8.00"/>
        <lane id="W2TL_2" index="2" speed="13.89" length="750.00" shape="-724.15,-4.80 -16.80,-4.80"/>
        <lane id="W2TL_3" index="3" speed="13.89" length="750.00" shape="-724.15,-1.60 -16.80,-1.60"/>
    </edge>
    <edge id="WIN" from="DW" to="W" priority="-1">
        <lane id="WIN_0" index="0" speed="13.89" length="49.75" shape="-750.25,11.20 -800.00,11.20"/>
        <lane id="WIN_1" index="1" speed="13.89" length="49.75" shape="-750.25,8.00 -800.00,8.00"/>
        <lane id="WIN_2" index="2" speed="13.89" length="49.75" shape="-750.25,4.80 -800.00,4.80"/>
        <lane id="WIN_3" index="3" speed="13.89" length="49.75" shape="-750.25,1.60 -800.00,1.60"/>
    </edge>
    <edge id="WOUT" from="W" to="DW" priority="-1">
        <lane id="WOUT_0" index="0" speed="13.89" length="49.75" shape="-800.00,-11.20 -750.25,-11.20"/>
        <lane id="WOUT_1" index="1" speed="13.89" length="49.75" shape="-800.00,-8.00 -750.25,-8.00"/>
        <lane id="WOUT_2" index="2" speed="13.89" length="49.75" shape="-800.00,-4.80 -750.25,-4.80"/>
        <lane id="WOUT_3" index="3" speed="13.89" length="49.75" shape="-800.00,-1.60 -750.25,-1.60"/>
    </edge>

    <tlLogic id="TL" type="static" programID="0" offset="0">
        <phase duration="100" state="GGGGrrrrrrGGGGrrrrrr"/>
        <phase duration="100" state="yyyyrrrrrryyyyrrrrrr"/>
        <phase duration="100" state="rrrrGrrrrrrrrrGrrrrr"/>
        <phase duration="100" state="rrrryrrrrrrrrryrrrrr"/>
        <phase duration="100" state="rrrrrGGGGrrrrrrGGGGr"/>
        <phase duration="100" state="rrrrryyyyrrrrrryyyyr"/>
        <phase duration="100" state="rrrrrrrrrGrrrrrrrrrG"/>
        <phase duration="100" state="rrrrrrrrryrrrrrrrrry"/>
    </tlLogic>

    <junction id="DE" type="priority" x="750.00" y="0.00" incLanes="EOUT_0 EOUT_1 EOUT_2 EOUT_3 S2E_0 S2E_1 TL2E_0 TL2E_1 TL2E_2 TL2E_3 N2E_0 N2E_1" intLanes=":DE_0_0 :DE_1_0 :DE_1_1 :DE_1_2 :DE_1_3 :DE_18_0 :DE_6_0 :DE_7_0 :DE_8_0 :DE_9_0 :DE_10_0 :DE_10_1 :DE_10_2 :DE_10_3 :DE_19_0 :DE_15_0 :DE_16_0 :DE_17_0" shape="750.25,12.80 750.25,-12.80 746.71,-14.12 744.28,-15.77 741.42,-18.08 738.11,-21.05 734.37,-24.68 725.32,-15.63 726.45,-14.06 726.44,-13.51 726.06,-13.11 725.29,-12.88 724.15,-12.80 724.15,12.80 726.06,13.11 726.44,13.51 726.45,14.06 726.07,14.76 725.32,15.63 734.37,24.68 738.11,21.05 741.42,18.08 744.28,15.77 746.71,14.12 748.70,13.13">
        <request index="0"  response="000000000000000000" foes="000000000000000000" cont="0"/>
        <request index="1"  response="000000000000000000" foes="111100000110000000" cont="0"/>
        <request index="2"  response="000000000000000000" foes="111100000110000000" cont="0"/>
        <request index="3"  response="000000000000000000" foes="111100000110000000" cont="0"/>
        <request index="4"  response="000000000000000000" foes="111100000110000000" cont="0"/>
        <request index="5"  response="000011110000000000" foes="110011110110000000" cont="1"/>
        <request index="6"  response="000011110000000000" foes="000011110000000000" cont="0"/>
        <request index="7"  response="000111110000111110" foes="100111110000111110" cont="0"/>
        <request index="8"  response="010111110000111110" foes="010111110000111110" cont="0"/>
        <request index="9"  response="000000000000000000" foes="000000000000000000" cont="0"/>
        <request index="10" response="000000000000000000" foes="110000000111100000" cont="0"/>
        <request index="11" response="000000000000000000" foes="110000000111100000" cont="0"/>
        <request index="12" response="000000000000000000" foes="110000000111100000" cont="0"/>
        <request index="13" response="000000000000000000" foes="110000000111100000" cont="0"/>
        <request index="14" response="000000000000011110" foes="110000000110011110" cont="1"/>
        <request index="15" response="000000000000011110" foes="000000000000011110" cont="0"/>